%mem=4GB
%cpu=0-2
%chk=1th_GS.chk
#p opt test pop=full

1th_GS

0 1
C	  2.73470272  5.96633430 -2.74034385
C	  3.83650561  5.77464704 -1.71588143
C	  4.75533050  6.70630589 -1.26414714
C	  5.69761554  6.29237124 -0.32017843
C	  5.70789644  4.96911035  0.15405608
C	  4.77113052  4.03605586 -0.30218624
C	  3.83355903  4.44626974 -1.23552267
C	  2.75575464  3.72351202 -1.87781139
C	  2.09607489  4.59864489 -2.76766128
C	  1.02704691  4.14099556 -3.50473029
C	  0.55504542  2.82205872 -3.32081361
C	  1.24226943  1.94669538 -2.47582415
C	  2.34983608  2.39993713 -1.74297090
C	 -0.60422631  2.61623705 -4.18765684
C	 -1.50165528  1.55446699 -4.33689787
N	 -1.60199198  0.50874289 -3.38751518
C	 -1.69097281 -0.87891042 -3.60781420
C	 -1.52396027 -1.51640391 -4.94072945
C	 -1.81524534 -1.50127395 -2.43228113
C	 -1.88349103 -2.83330927 -1.78403060
O	 -1.86777570 -3.90687600 -2.34850562
N	 -1.88807942 -2.48112550 -0.41274855
C	 -1.71982085 -3.35753744  0.65816274
C	 -2.50602080 -4.48254376  0.87123631
C	 -3.66960630 -4.98328344  0.10911598
C	 -3.67344636 -6.29253643 -0.46195366
O	 -2.53112386 -7.07345725 -0.24144475
C	 -2.44452639 -8.30631215 -0.84851070
C	 -2.88067370 -9.44870973 -0.14259966
C	 -3.43599407 -9.29959240  1.25095579
C	 -2.84171862 -10.70505287 -0.78650652
C	 -3.38876258 -11.93461799 -0.10903680
C	 -2.26756567 -10.78474408 -2.07038008
O	 -2.11967988 -11.99557710 -2.70056049
C	 -1.80765854 -9.64945276 -2.76376419
C	 -1.23259119 -9.79975319 -4.14915739
C	 -1.84764434 -8.39570127 -2.12222299
C	 -1.30564650 -7.15782644 -2.78750721
C	 -4.85367632 -6.65887083 -1.18772601
N	 -5.13257760 -7.82197317 -1.80197845
S	 -6.62735564 -7.68825247 -2.48901233
N	 -7.03597377 -6.14805240 -2.03524601
C	 -5.99878378 -5.67456371 -1.32652071
C	 -5.94325480 -4.39116233 -0.74376248
C	 -4.77209219 -4.08694610 -0.03518081
S	 -2.10572338 -5.25457711  2.35287665
C	 -0.77367045 -4.22027491  2.63741214
C	  0.11125658 -4.47868902  3.82629184
C	  1.23821950 -5.44569256  3.48854803
C	 -0.68086361 -3.24404074  1.66251962
C	  0.40924912 -2.33173910  1.59379702
C	  0.56558133 -1.11606781  2.11946531
N	  1.52083893 -2.63343330  0.82191214
C	  2.45216692 -1.59643430  0.80227006
O	  3.51086355 -1.51460733  0.22069807
C	  1.81049466 -0.58509480  1.65226854
C	  1.94876183  0.64894791  2.12200307
N	  0.84066449  1.00114459  2.90283211
C	  0.63980721  2.26658680  3.54100884
C	  1.50857042  3.34248342  3.27169579
C	  1.32701714  4.55629054  3.92077317
C	  2.08403490  5.78891884  3.83882559
C	  1.51849166  6.72059850  4.73762059
C	  2.08731616  7.96496177  4.86832994
C	  3.22455572  8.29569569  4.09712621
C	  3.77497805  7.38564672  3.19557004
C	  3.19628732  6.11549913  3.06447586
C	  3.63356791  9.64326845  4.43777561
C	  4.68895837  10.41284200  3.97724448
C	  4.85272262  11.69891308  4.50210639
C	  3.96682997  12.19969612  5.47230502
C	  2.90239146  11.42500175  5.93745850
C	  2.74925521  10.15200604  5.41473422
C	  1.69289370  9.12009342  5.75662730
C	 -0.41415839  2.47497944  4.46039180
C	 -0.59894453  3.69999326  5.11868459
C	  0.28239562  4.72694233  4.84634030
C	  0.31978909  6.12299963  5.43514457
C	 -0.08712600 -0.08773432  2.95105185
O	 -1.17808118 -0.22507508  3.47028281
C	 -1.87703925 -1.11262586 -0.21551065
C	 -1.83041757 -0.51073450 -1.39733899
C	 -1.75643117  0.81819228 -2.00440955
O	 -1.84186765  1.86710813 -1.39816672
C	 -2.42433719  1.61482923 -5.39601246
C	 -2.49927831  2.73848344 -6.23707823
C	 -1.66884604  3.83769614 -6.03048957
C	 -0.73744521  3.76629025 -5.00671799
C	  0.24132210  4.84349337 -4.58153997
H	  2.02086390  6.72339192 -2.40245515
H	  3.15766336  6.21726933 -3.71825594
H	  4.74947199  7.72652071 -1.63257161
H	  6.43731426  7.00018942  0.04925626
H	  6.45587446  4.66754652  0.88359586
H	  4.79075617  3.01551906  0.06634263
H	  0.95018748  0.90741677 -2.38623823
H	  2.88189044  1.71741080 -1.08743782
H	 -0.61863567 -1.14814016 -5.43597144
H	 -2.38382721 -1.32037201 -5.58692175
H	 -1.42753942 -2.60279390 -4.85266972
H	 -3.17138348 -10.15860246  1.87602523
H	 -4.52451641 -9.20088297  1.21235168
H	 -3.02204574 -8.42514032  1.76211609
H	 -2.60413007 -12.41565937  0.48313655
H	 -3.77897875 -12.65252239 -0.83686950
H	 -4.23551237 -11.69517206  0.54159619
H	 -2.06944958 -12.68923320 -2.02685918
H	 -0.14752154 -9.92405698 -4.09140300
H	 -1.66000420 -10.65801947 -4.67683681
H	 -1.46376631 -8.92841729 -4.76993417
H	 -0.98939520 -6.41321501 -2.05001563
H	 -0.41008348 -7.38317767 -3.37374854
H	 -2.06396618 -6.71560521 -3.43981492
H	 -6.76342602 -3.68920241 -0.83733599
H	 -4.71619662 -3.10292884  0.43536670
H	 -0.47550736 -4.88053668  4.66234179
H	  0.53970617 -3.53484123  4.18163898
H	  0.84648711 -6.42289227  3.18374686
H	  1.88331307 -5.59800261  4.36015491
H	  1.86024856 -5.06493100  2.67058809
H	  1.64269090 -3.49564939  0.30663723
H	  2.78346641  1.30792605  1.94018074
H	  2.31729927  3.26508609  2.55691851
H	  4.64238343  7.64751464  2.59813638
H	  3.61702228  5.40171046  2.36424343
H	  5.37961642  10.03448029  3.23104591
H	  5.67575681  12.31944532  4.15661754
H	  4.11644671  13.20283334  5.86604250
H	  2.22133093  11.81043020  6.68839397
H	  1.75515018  8.83760101  6.81215905
H	  0.69535265  9.48763934  5.49531488
H	 -1.11348396  1.68110242  4.70726582
H	 -1.40971061  3.82651055  5.82818210
H	  0.47823109  6.08245370  6.51716584
H	 -0.59131926  6.67305486  5.18054254
H	 -1.91008446 -0.64888437  0.75880870
H	 -3.15733583  0.82500670 -5.53631648
H	 -3.24554737  2.76667303 -7.02876430
H	 -1.75322614  4.72196460 -6.65341234
H	 -0.28813042  5.71078593 -4.17767755
H	  0.89105627  5.12272289 -5.41707651


