23
C13H10-フルオレン.log	Energy: -314724.0021864
C          0.00000        1.82936        0.00000
C          1.18343        0.88466       -0.00000
C          2.54230        1.17112       -0.00000
C          3.45837        0.11565       -0.00000
C          3.01424       -1.20938        0.00000
C          1.65100       -1.50250        0.00000
C          0.73461       -0.45028        0.00000
C         -0.73461       -0.45028        0.00000
C         -1.65100       -1.50250       -0.00000
C         -3.01424       -1.20938       -0.00000
C         -3.45837        0.11565       -0.00000
C         -2.54230        1.17112        0.00000
C         -1.18343        0.88466        0.00000
H          0.00000        2.48329        0.87969
H         -0.00000        2.48329       -0.87969
H          2.89402        2.19784       -0.00000
H          4.52197        0.32599       -0.00000
H          3.73760       -2.01717        0.00000
H          1.31484       -2.53367        0.00000
H         -1.31484       -2.53367       -0.00000
H         -3.73760       -2.01717       -0.00000
H         -4.52197        0.32599       -0.00000
H         -2.89402        2.19784        0.00000
