%mem=2GB
%nprocshared=8
%chk=C13H10-フルオレン.chk
#p opt b3lyp/6-311+g(d,p) geom=connectivity pop=full

C13H10-フルオレン

0 1
C	  0.17185947 -1.79017409  0.02588487
C	  1.24975639 -0.72985224 -0.07313227
C	  2.61998327 -0.90852727 -0.16656104
C	  3.42449327  0.22974774 -0.24786218
C	  2.85588397  1.51506157 -0.23485473
C	  1.47082717  1.68650867 -0.14023319
C	  0.67178942  0.55853588 -0.05953954
C	 -0.76592874  0.42202717  0.04534895
C	 -1.76514819  1.37926334  0.09588792
C	 -3.09256133  0.95028459  0.19919859
C	 -3.40634036 -0.41880870  0.25059711
C	 -2.39978863 -1.38513586  0.19973708
C	 -1.08831179 -0.95184646  0.09745171
H	  0.16653521 -2.42092999 -0.86780264
H	  0.29460500 -2.38254548  0.93725077
H	  3.05915149 -1.90034951 -0.17660558
H	  4.50422398  0.12257477 -0.32217038
H	  3.50216736  2.38734765 -0.29924865
H	  1.04195246  2.68252765 -0.13100595
H	 -1.53352717  2.43799117  0.05695042
H	 -3.89313415  1.68520111  0.24035532
H	 -4.44617325 -0.72722018  0.33092974
H	 -2.64231486 -2.44168152  0.23942370


