378149479
  -OEChem-06251920212D

 67 75  0     0  0  0  0  0  0999 V2000
   -4.2174   -3.6405    0.0000 S   0  0  0  0  0  0  0  0  0  0  0  0
    3.4635    0.2963    0.0000 S   0  0  0  0  0  0  0  0  0  0  0  0
   -5.2234    0.1837    0.0000 S   0  0  0  0  0  0  0  0  0  0  0  0
    5.2234   -3.0613    0.0000 S   0  0  0  0  0  0  0  0  0  0  0  0
    5.7950   -4.4783    0.0000 S   0  0  0  0  0  0  0  0  0  0  0  0
   -5.6081    1.5791    0.0000 S   0  0  0  0  0  0  0  0  0  0  0  0
    7.1366   -2.0680    0.0000 O   0  0  0  0  0  0  0  0  0  0  0  0
   -7.1366   -0.8096    0.0000 O   0  0  0  0  0  0  0  0  0  0  0  0
   -3.4572   -3.3200    0.0000 N   0  0  0  0  0  0  0  0  0  0  0  0
    2.8121   -0.2100    0.0000 N   0  0  0  0  0  0  0  0  0  0  0  0
   -4.7571   -3.0166    0.0000 N   0  0  0  0  0  0  0  0  0  0  0  0
    4.1463   -0.1667    0.0000 N   0  0  0  0  0  0  0  0  0  0  0  0
   -6.5374    0.4187    0.0000 N   0  0  0  0  0  0  0  0  0  0  0  0
    6.5374   -3.2963    0.0000 N   0  0  0  0  0  0  0  0  0  0  0  0
   -0.2189   -0.9887    0.0000 C   0  0  0  0  0  0  0  0  0  0  0  0
    0.4872   -1.4154    0.0000 C   0  0  0  0  0  0  0  0  0  0  0  0
   -0.8407   -1.5266    0.0000 C   0  0  0  0  0  0  0  0  0  0  0  0
    0.2997   -2.2188    0.0000 C   0  0  0  0  0  0  0  0  0  0  0  0
   -0.5224   -2.2887    0.0000 C   0  0  0  0  0  0  0  0  0  0  0  0
    1.2767   -1.1761    0.0000 C   0  0  0  0  0  0  0  0  0  0  0  0
   -1.6615   -1.4259    0.0000 C   0  0  0  0  0  0  0  0  0  0  0  0
    0.3727   -0.4178    0.0000 C   0  0  0  0  0  0  0  0  0  0  0  0
   -0.5006   -0.2163    0.0000 C   0  0  0  0  0  0  0  0  0  0  0  0
    1.8787   -1.7402    0.0000 C   0  0  0  0  0  0  0  0  0  0  0  0
   -2.1596   -2.0836    0.0000 C   0  0  0  0  0  0  0  0  0  0  0  0
    0.9016   -2.7829    0.0000 C   0  0  0  0  0  0  0  0  0  0  0  0
   -1.0205   -2.9463    0.0000 C   0  0  0  0  0  0  0  0  0  0  0  0
   -2.9630   -1.8960    0.0000 C   0  0  0  0  0  0  0  0  0  0  0  0
    2.7033   -1.7134    0.0000 C   0  0  0  0  0  0  0  0  0  0  0  0
    1.6912   -2.5436    0.0000 C   0  0  0  0  0  0  0  0  0  0  0  0
   -1.8391   -2.8438    0.0000 C   0  0  0  0  0  0  0  0  0  0  0  0
   -3.5271   -2.4980    0.0000 C   0  0  0  0  0  0  0  0  0  0  0  0
    3.0924   -0.9860    0.0000 C   0  0  0  0  0  0  0  0  0  0  0  0
    0.1741    0.3799    0.0000 C   0  0  0  0  0  0  0  0  0  0  0  0
   -1.3103   -0.0741    0.0000 C   0  0  0  0  0  0  0  0  0  0  0  0
   -4.3305   -2.3104    0.0000 C   0  0  0  0  0  0  0  0  0  0  0  0
    3.9170   -0.9592    0.0000 C   0  0  0  0  0  0  0  0  0  0  0  0
   -3.2023   -1.1065    0.0000 C   0  0  0  0  0  0  0  0  0  0  0  0
    3.1388   -2.4141    0.0000 C   0  0  0  0  0  0  0  0  0  0  0  0
   -4.5698   -1.5209    0.0000 C   0  0  0  0  0  0  0  0  0  0  0  0
    4.3524   -1.6599    0.0000 C   0  0  0  0  0  0  0  0  0  0  0  0
   -4.0057   -0.9189    0.0000 C   0  0  0  0  0  0  0  0  0  0  0  0
    3.9633   -2.3874    0.0000 C   0  0  0  0  0  0  0  0  0  0  0  0
    0.7758    0.9402    0.0000 C   0  0  0  0  0  0  0  0  0  0  0  0
   -1.5919    0.6983    0.0000 C   0  0  0  0  0  0  0  0  0  0  0  0
   -5.3732   -1.3334    0.0000 C   0  0  0  0  0  0  0  0  0  0  0  0
    5.1770   -1.6331    0.0000 C   0  0  0  0  0  0  0  0  0  0  0  0
   -5.6125   -0.5438    0.0000 C   0  0  0  0  0  0  0  0  0  0  0  0
    5.6125   -2.3338    0.0000 C   0  0  0  0  0  0  0  0  0  0  0  0
   -6.4246   -0.3986    0.0000 C   0  0  0  0  0  0  0  0  0  0  0  0
    6.4246   -2.4791    0.0000 C   0  0  0  0  0  0  0  0  0  0  0  0
    0.5915    1.7414    0.0000 C   0  0  0  0  0  0  0  0  0  0  0  0
   -2.4017    0.8406    0.0000 C   0  0  0  0  0  0  0  0  0  0  0  0
   -5.7950    0.7785    0.0000 C   0  0  0  0  0  0  0  0  0  0  0  0
    5.7950   -3.6562    0.0000 C   0  0  0  0  0  0  0  0  0  0  0  0
    7.2494   -3.7074    0.0000 C   0  0  0  0  0  0  0  0  0  0  0  0
   -7.2494    0.8297    0.0000 C   0  0  0  0  0  0  0  0  0  0  0  0
    1.1932    2.3016    0.0000 C   0  0  0  0  0  0  0  0  0  0  0  0
   -2.6833    1.6130    0.0000 C   0  0  0  0  0  0  0  0  0  0  0  0
    1.0088    3.1028    0.0000 C   0  0  0  0  0  0  0  0  0  0  0  0
   -3.4930    1.7553    0.0000 C   0  0  0  0  0  0  0  0  0  0  0  0
    7.9614   -3.2963    0.0000 C   0  0  0  0  0  0  0  0  0  0  0  0
   -7.9614    0.4187    0.0000 C   0  0  0  0  0  0  0  0  0  0  0  0
    1.5902    3.6842    0.0000 C   0  0  0  0  0  0  0  0  0  0  0  0
   -3.7747    2.5277    0.0000 C   0  0  0  0  0  0  0  0  0  0  0  0
    1.3774    4.4783    0.0000 C   0  0  0  0  0  0  0  0  0  0  0  0
   -4.5844    2.6700    0.0000 C   0  0  0  0  0  0  0  0  0  0  0  0
  1  9  1  0  0  0  0
  1 11  1  0  0  0  0
  2 10  1  0  0  0  0
  2 12  1  0  0  0  0
  3 48  1  0  0  0  0
  3 54  1  0  0  0  0
  4 49  1  0  0  0  0
  4 55  1  0  0  0  0
  5 55  2  0  0  0  0
  6 54  2  0  0  0  0
  7 51  2  0  0  0  0
  8 50  2  0  0  0  0
  9 32  2  0  0  0  0
 10 33  2  0  0  0  0
 11 36  2  0  0  0  0
 12 37  2  0  0  0  0
 13 50  1  0  0  0  0
 13 54  1  0  0  0  0
 13 57  1  0  0  0  0
 14 51  1  0  0  0  0
 14 55  1  0  0  0  0
 14 56  1  0  0  0  0
 15 16  1  0  0  0  0
 15 17  1  0  0  0  0
 15 22  1  0  0  0  0
 15 23  1  0  0  0  0
 16 18  2  0  0  0  0
 16 20  1  0  0  0  0
 17 19  2  0  0  0  0
 17 21  1  0  0  0  0
 18 19  1  0  0  0  0
 18 26  1  0  0  0  0
 19 27  1  0  0  0  0
 20 24  2  0  0  0  0
 21 25  2  0  0  0  0
 22 34  1  0  0  0  0
 23 35  1  0  0  0  0
 24 29  1  0  0  0  0
 24 30  1  0  0  0  0
 25 28  1  0  0  0  0
 25 31  1  0  0  0  0
 26 30  2  0  0  0  0
 27 31  2  0  0  0  0
 28 32  1  0  0  0  0
 28 38  2  0  0  0  0
 29 33  1  0  0  0  0
 29 39  2  0  0  0  0
 32 36  1  0  0  0  0
 33 37  1  0  0  0  0
 34 44  1  0  0  0  0
 35 45  1  0  0  0  0
 36 40  1  0  0  0  0
 37 41  1  0  0  0  0
 38 42  1  0  0  0  0
 39 43  1  0  0  0  0
 40 42  2  0  0  0  0
 40 46  1  0  0  0  0
 41 43  2  0  0  0  0
 41 47  1  0  0  0  0
 44 52  1  0  0  0  0
 45 53  1  0  0  0  0
 46 48  2  0  0  0  0
 47 49  2  0  0  0  0
 48 50  1  0  0  0  0
 49 51  1  0  0  0  0
 52 58  1  0  0  0  0
 53 59  1  0  0  0  0
 56 62  1  0  0  0  0
 57 63  1  0  0  0  0
 58 60  1  0  0  0  0
 59 61  1  0  0  0  0
 60 64  1  0  0  0  0
 61 65  1  0  0  0  0
 64 66  1  0  0  0  0
 65 67  1  0  0  0  0
M  END
> <PUBCHEM_COMPOUND_ID_TYPE>
0

> <PUBCHEM_TOTAL_CHARGE>
0

> <PUBCHEM_SUBSTANCE_ID>
378149479

> <PUBCHEM_SUBSTANCE_VERSION>
1

> <PUBCHEM_EXT_DATASOURCE_NAME>
Sigma-Aldrich

> <PUBCHEM_EXT_DATASOURCE_REGID>
900854_ALDRICH

> <PUBCHEM_SUBSTANCE_SYNONYM>
FBR

> <PUBCHEM_XREF_EXT_ID>
900854_ALDRICH

> <PUBCHEM_EXT_DATASOURCE_URL>
http://www.sigmaaldrich.com

> <PUBCHEM_EXT_SUBSTANCE_URL>
https://www.sigmaaldrich.com/catalog/product/aldrich/900854?utm_source=pubchem&utm_campaign=pubchem_2017&utm_medium=referral

> <PUBCHEM_CID_ASSOCIATIONS>
136212897  1

> <PUBCHEM_COORDINATE_TYPE>
1
3

$$$$
